6
reaction: H2+SiH3=H+SiH4, family: H_Abstraction, labels: 0 1 5, stretch: 1.0789 1.5489, level: CCSD(T)/aug-cc-pVDZ, source: CCCBDB
Si   0.000000    0.000000    0.154511
H    0.000000    0.000000   -1.452614
H    0.000000    1.412441    0.633179
H   -1.223210   -0.706220    0.633179
H    1.223210   -0.706220    0.633179
H    0.000000    0.000000   -2.610073
