7
reaction: H2O+CH3=OH+CH4, family: H_Abstraction, labels: 0 4 5, stretch: 1.1263 1.3400, level: CCSD(T)/6-31+G**, source: CCCBDB
C   0.048028   1.212339    0.000000
H   1.092517   1.514291    0.000000
H  -0.475552   1.502578    0.907291
H  -0.475552   1.502578   -0.907291
H   0.105941  -0.013320    0.000000
O   0.048028  -1.296150    0.000000
H  -0.919742  -1.410960    0.000000
