8
reaction: NH2+N2H3=NH3+H2NN(T), family: H_Abstraction, labels: 3 4 5, stretch: 1.1031 1.4031, level: Ï‰B97x-D3/6-311++G(3df,3pd), source: 10.1021/acs.jpca.9b02217
N       1.2326875017     0.4213123277    -0.0618658266
H       0.6655550940     1.2168776592     0.2101055844
H       2.1957986750     0.4386583007     0.2350889928
N       0.6558664563    -0.7798391390    -0.0066881224
H      -0.4367220754    -0.5160242915     0.0120771313
N      -1.6396075836     0.2433983757     0.0409151256
H      -2.1914951585    -0.3745793737     0.6389757627
H      -1.9757611562     0.0409667545    -0.9027757076
